Version 4
SHEET 1 880 680
WIRE 128 80 64 80
WIRE 208 96 192 96
WIRE 304 96 304 16
WIRE 304 96 288 96
WIRE 128 112 112 112
WIRE 368 112 368 16
WIRE 432 112 368 112
WIRE 304 128 288 128
WIRE 64 176 64 80
WIRE 112 176 112 112
WIRE 192 176 192 96
WIRE 288 192 288 128
WIRE 112 256 112 176
WIRE 432 256 432 112
WIRE 432 256 192 256
FLAG 288 192 0
FLAG 64 176 0
FLAG -32 96 v+
FLAG 336 80 v+
FLAG -32 208 v-
FLAG 336 144 v-
FLAG -32 288 0
FLAG -32 176 0
SYMBOL OpAmps\\opamp 160 32 R0
SYMATTR InstName U1
SYMBOL cap 368 0 R90
WINDOW 0 0 32 VBottom 2
WINDOW 3 32 32 VTop 2
SYMATTR InstName C1
SYMATTR Value 250n
SYMBOL res 304 80 R90
WINDOW 0 0 56 VBottom 2
WINDOW 3 32 56 VTop 2
SYMATTR InstName R1
SYMATTR Value 1k
SYMBOL res 208 160 R90
WINDOW 0 0 56 VBottom 2
WINDOW 3 32 56 VTop 2
SYMATTR InstName R2
SYMATTR Value 1k
SYMBOL res 208 240 R90
WINDOW 0 0 56 VBottom 2
WINDOW 3 32 56 VTop 2
SYMATTR InstName R3
SYMATTR Value 1k
SYMBOL OpAmps\\OP07 336 48 R0
SYMATTR InstName U2
SYMBOL voltage -32 80 R0
WINDOW 123 0 0 Left 0
WINDOW 39 0 0 Left 0
SYMATTR InstName V1
SYMATTR Value 5
SYMBOL voltage -32 192 R0
WINDOW 123 0 0 Left 0
WINDOW 39 0 0 Left 0
SYMATTR InstName V2
SYMATTR Value -5
TEXT 168 320 Left 2 !.lib opamp.sub
TEXT -66 340 Left 2 !.tran 100m
