Version 4
SHEET 1 880 680
WIRE -80 128 -128 128
WIRE 80 128 16 128
WIRE 128 128 80 128
WIRE 256 128 208 128
WIRE 368 128 256 128
WIRE 256 144 256 128
WIRE 80 160 80 128
WIRE 0 208 0 176
FLAG 256 208 0
FLAG 368 208 0
FLAG 80 224 0
FLAG -128 208 0
FLAG 0 288 0
SYMBOL ind 224 112 R90
WINDOW 0 5 56 VBottom 2
WINDOW 3 32 56 VTop 2
SYMATTR InstName L1
SYMATTR Value 9.66µ
SYMBOL cap 240 144 R0
SYMATTR InstName C1
SYMATTR Value 10000µ
SYMBOL nmos -80 176 R270
SYMATTR InstName M1
SYMATTR Value SUP90N08-8m2P
SYMBOL voltage -128 112 R0
WINDOW 123 0 0 Left 0
WINDOW 39 0 0 Left 0
SYMATTR InstName V1
SYMATTR Value 30
SYMBOL voltage 0 192 R0
WINDOW 3 24 96 Invisible 2
WINDOW 123 0 0 Left 0
WINDOW 39 0 0 Left 0
SYMATTR Value PULSE(0 35 0 0 0 21n 139.2n)
SYMATTR InstName V2
SYMBOL res 352 112 R0
SYMATTR InstName R1
SYMATTR Value 50
SYMBOL schottky 96 224 R180
WINDOW 0 24 64 Left 2
WINDOW 3 24 0 Left 2
SYMATTR InstName D1
TEXT -160 280 Left 2 !.tran 150m
