Version 4
SHEET 1 880 680
WIRE 336 -48 288 -48
WIRE 560 -48 336 -48
WIRE 288 -16 288 -48
WIRE 288 64 192 64
WIRE 336 64 336 32
WIRE 336 64 288 64
WIRE 416 64 336 64
WIRE 448 64 416 64
WIRE 544 64 528 64
WIRE 560 64 560 -48
WIRE 560 64 544 64
WIRE 688 64 560 64
WIRE 192 96 192 64
WIRE 416 96 416 64
WIRE 544 96 544 64
WIRE 688 96 688 64
WIRE 288 112 288 64
WIRE 192 192 192 176
WIRE 192 192 96 192
WIRE 544 192 544 176
WIRE 688 192 688 176
WIRE 688 192 544 192
WIRE 720 192 688 192
WIRE 288 208 288 192
WIRE 416 208 416 176
WIRE 416 208 288 208
WIRE 288 224 288 208
WIRE 192 256 192 192
WIRE 544 256 544 192
WIRE 544 256 192 256
FLAG 288 224 0
FLAG 288 -16 0
SYMBOL res 176 192 M180
WINDOW 0 -64 91 Left 2
WINDOW 3 36 19 Left 2
SYMATTR InstName r_pi2
SYMATTR Value ""
SYMBOL current 288 192 M180
WINDOW 0 7 93 Left 2
WINDOW 3 24 -21 Left 2
SYMATTR InstName gm2*vin
SYMATTR Value ""
SYMBOL res 544 48 R90
WINDOW 0 0 56 VBottom 2
WINDOW 3 32 56 VTop 2
SYMATTR InstName r_pi1
SYMATTR Value ""
SYMBOL res 400 80 R0
SYMATTR InstName r_o2
SYMATTR Value ""
SYMBOL current 544 176 M180
WINDOW 0 22 87 Left 2
WINDOW 3 24 -21 Left 2
SYMATTR InstName gm1*vin
SYMATTR Value ""
SYMBOL res 672 80 R0
SYMATTR InstName r_o1
SYMATTR Value ""
SYMBOL res 320 -64 R0
SYMATTR InstName R1
SYMATTR Value ""
TEXT 696 208 Left 2 ;vout
TEXT 88 168 Left 2 ;vin
