Version 4
SHEET 1 880 680
SYMBOL npn 128 112 R0
SYMATTR InstName Q1
SYMATTR Value BC547C
