Version 4
SHEET 1 880 680
WIRE 288 32 288 -64
WIRE 288 32 176 32
WIRE 112 80 0 80
WIRE 288 80 288 32
WIRE 224 128 176 128
WIRE 288 368 288 176
WIRE 224 416 176 416
WIRE 112 464 0 464
WIRE 288 512 288 464
WIRE 288 512 176 512
WIRE 288 592 288 512
FLAG 288 -64 V+
FLAG 288 592 V-
SYMBOL npn 224 80 R0
SYMATTR InstName Q1
SYMBOL npn 112 32 R0
SYMATTR InstName Q2
SYMBOL pnp 224 464 M180
SYMATTR InstName Q3
SYMBOL pnp 112 512 M180
SYMATTR InstName Q4
