Version 4
SHEET 1 880 680
WIRE 544 16 528 16
WIRE 704 16 624 16
WIRE -48 80 -64 80
WIRE 32 80 -48 80
WIRE 112 80 32 80
WIRE 32 96 32 80
WIRE 384 96 176 96
WIRE 400 96 384 96
WIRE 528 96 528 16
WIRE 528 96 480 96
WIRE 608 96 528 96
WIRE 112 112 96 112
WIRE 480 112 480 96
WIRE 704 112 704 96
WIRE 704 112 672 112
WIRE 720 112 704 112
WIRE 608 128 576 128
WIRE 576 144 576 128
WIRE 96 160 96 112
WIRE 160 160 96 160
WIRE 176 160 160 160
WIRE 272 160 256 160
WIRE 384 160 384 96
WIRE 384 160 352 160
WIRE -48 176 -48 160
WIRE 32 176 32 160
WIRE 480 192 480 176
WIRE 160 240 160 160
WIRE 176 240 160 240
WIRE 256 240 256 160
WIRE 256 240 240 240
WIRE 272 240 256 240
WIRE 384 240 384 160
WIRE 384 240 336 240
WIRE 96 320 96 304
FLAG -48 176 0
FLAG 32 176 0
FLAG 96 320 0
FLAG 480 192 0
FLAG -64 80 Input
IOPIN -64 80 In
FLAG 576 144 0
FLAG 720 112 Output
IOPIN 720 112 Out
SYMBOL OpAmps\\opamp 144 160 M180
SYMATTR InstName U1
SYMBOL res -64 64 R0
SYMATTR InstName R1
SYMATTR Value 47k
SYMBOL cap 16 96 R0
SYMATTR InstName C1
SYMATTR Value ""
SYMBOL res 80 144 R0
SYMATTR InstName R2
SYMATTR Value ""
SYMBOL cap 80 240 R0
SYMATTR InstName C2
SYMATTR Value ""
SYMBOL res 272 144 R90
WINDOW 0 0 56 VBottom 2
WINDOW 3 32 56 VTop 2
SYMATTR InstName R3
SYMATTR Value ""
SYMBOL res 368 144 R90
WINDOW 0 0 56 VBottom 2
WINDOW 3 32 56 VTop 2
SYMATTR InstName R4
SYMATTR Value ""
SYMBOL cap 240 224 R90
WINDOW 0 0 32 VBottom 2
WINDOW 3 32 32 VTop 2
SYMATTR InstName C3
SYMATTR Value ""
SYMBOL cap 336 224 R90
WINDOW 0 0 32 VBottom 2
WINDOW 3 32 32 VTop 2
SYMATTR InstName C4
SYMATTR Value ""
SYMBOL res 496 80 R90
WINDOW 0 0 56 VBottom 2
WINDOW 3 32 56 VTop 2
SYMATTR InstName R5
SYMATTR Value ""
SYMBOL cap 464 112 R0
SYMATTR InstName C5
SYMATTR Value ""
SYMBOL OpAmps\\opamp 640 48 R0
SYMATTR InstName U2
SYMBOL res 640 0 R90
WINDOW 0 0 56 VBottom 2
WINDOW 3 32 56 VTop 2
SYMATTR InstName R6
SYMATTR Value ""
SYMBOL res 688 0 R0
SYMATTR InstName R7
SYMATTR Value ""
