Version 4
SHEET 1 1384 792
WIRE -912 -368 -912 -432
WIRE -656 -368 -656 -432
WIRE 704 -368 704 -528
WIRE 336 -352 -112 -352
WIRE 336 -336 336 -352
WIRE 656 -336 336 -336
WIRE -784 -320 -848 -320
WIRE -720 -320 -784 -320
WIRE 336 -304 336 -336
WIRE 544 -304 336 -304
WIRE -272 -272 -272 -432
WIRE 336 -272 336 -304
WIRE 704 -272 704 -304
WIRE -784 -256 -784 -320
WIRE -656 -256 -656 -272
WIRE -656 -256 -784 -256
WIRE 544 -240 544 -304
WIRE -912 -224 -912 -272
WIRE -336 -224 -912 -224
WIRE -320 -224 -336 -224
WIRE -912 -208 -912 -224
WIRE -656 -208 -656 -256
WIRE 480 -192 336 -192
WIRE 704 -176 704 -192
WIRE 816 -176 704 -176
WIRE 880 -176 816 -176
WIRE 992 -176 880 -176
WIRE -976 -160 -1104 -160
WIRE -960 -160 -976 -160
WIRE -512 -160 -592 -160
WIRE 704 -160 704 -176
WIRE 880 -144 880 -176
WIRE -272 -80 -272 -176
WIRE -112 -80 -112 -352
WIRE -112 -80 -272 -80
WIRE 336 -80 336 -112
WIRE 544 -80 544 -144
WIRE 544 -80 336 -80
WIRE -912 -64 -912 -112
WIRE -784 -64 -912 -64
WIRE -656 -64 -656 -112
WIRE -656 -64 -784 -64
WIRE 704 -64 704 -80
WIRE 336 -32 336 -80
WIRE 656 -32 336 -32
WIRE 880 -32 880 -64
WIRE 336 0 336 -32
WIRE -784 16 -784 -64
WIRE 144 48 96 48
WIRE 272 48 144 48
WIRE 336 128 336 96
WIRE 336 128 240 128
WIRE 704 128 704 0
WIRE -512 160 -512 -160
WIRE -304 160 -512 160
WIRE -272 160 -304 160
WIRE -96 160 -192 160
WIRE 144 160 144 48
WIRE 336 160 336 128
WIRE -784 192 -784 96
WIRE -304 192 -304 160
WIRE 240 208 240 128
WIRE 240 208 208 208
WIRE 272 208 240 208
WIRE -304 304 -304 272
WIRE 240 336 144 336
WIRE 336 336 240 336
WIRE -96 368 -96 160
WIRE 816 368 816 -176
WIRE 816 368 -96 368
WIRE -304 400 -304 368
WIRE 240 400 240 336
FLAG 96 128 0
FLAG 704 -528 Vcc+
FLAG 704 128 Vcc-
FLAG 240 400 Vcc-
FLAG -1008 688 0
FLAG -864 688 0
FLAG -1008 608 Vcc-
FLAG -864 608 Vcc+
FLAG -736 688 0
FLAG 880 -32 0
FLAG 992 -176 out
FLAG -736 608 in
FLAG -784 192 Vcc-
FLAG -912 -432 Vcc+
FLAG -656 -432 Vcc+
FLAG -1104 -160 in
FLAG -272 -432 Vcc+
FLAG -304 400 0
SYMBOL npn 272 160 R0
SYMATTR InstName Q_W2
SYMATTR Value BC547B
SYMBOL npn 208 160 M0
SYMATTR InstName Q_W1
SYMATTR Value BC547B
SYMBOL res 128 240 R0
SYMATTR InstName R_WE1
SYMATTR Value 200
SYMBOL res 320 240 R0
SYMATTR InstName R_WE2
SYMATTR Value 200
SYMBOL npn 272 0 R0
SYMATTR InstName Q_W3
SYMATTR Value BC547B
SYMBOL res 80 32 R0
WINDOW 0 -54 32 Left 2
WINDOW 3 -36 66 Left 2
SYMATTR InstName R_W
SYMATTR Value 3k
SYMBOL res 320 -208 R0
SYMATTR InstName R_VBE2
SYMATTR Value 1k
SYMBOL res 320 -288 R0
SYMATTR InstName R_VBE1
SYMATTR Value 4k
SYMBOL npn 480 -240 R0
SYMATTR InstName Q_VBE
SYMATTR Value BC547B
SYMBOL res 864 -160 R0
SYMATTR InstName R_load
SYMATTR Value 8
SYMBOL voltage -1008 592 R0
WINDOW 123 0 0 Left 0
WINDOW 39 0 0 Left 0
SYMATTR InstName V1
SYMATTR Value -25
SYMBOL voltage -864 592 R0
WINDOW 123 0 0 Left 0
WINDOW 39 0 0 Left 0
SYMATTR InstName V2
SYMATTR Value 25
SYMBOL voltage -736 592 R0
WINDOW 123 0 0 Left 0
WINDOW 39 0 0 Left 0
SYMATTR InstName V3
SYMATTR Value SINE(0 1 1k)
SYMBOL bdx33c 704 -336 R0
SYMATTR InstName U1
SYMBOL bdx34c 704 -32 R0
SYMATTR InstName U2
SYMBOL res 688 -288 R0
SYMATTR InstName R1
SYMATTR Value 1
SYMBOL res 688 -176 R0
SYMATTR InstName R2
SYMATTR Value 1
SYMBOL current -784 16 R0
WINDOW 123 0 0 Left 0
WINDOW 39 0 0 Left 0
SYMATTR InstName I1
SYMATTR Value 1m
SYMBOL npn -976 -208 R0
SYMATTR InstName Q1
SYMATTR Value BC547B
SYMBOL npn -592 -208 M0
SYMATTR InstName Q2
SYMATTR Value BC547B
SYMBOL pnp -848 -272 R180
SYMATTR InstName Q3
SYMATTR Value BC557B
SYMBOL pnp -720 -272 M180
SYMATTR InstName Q4
SYMATTR Value BC557B
SYMBOL pnp -336 -176 M180
SYMATTR InstName Q5
SYMATTR Value BC557B
SYMBOL res -176 144 R90
WINDOW 0 0 56 VBottom 2
WINDOW 3 32 56 VTop 2
SYMATTR InstName R3
SYMATTR Value 8.4k
SYMBOL res -320 176 R0
SYMATTR InstName R4
SYMATTR Value 1k
SYMBOL cap -320 304 R0
SYMATTR InstName C1
SYMATTR Value 100µ
TEXT -1024 744 Left 2 !.tran 0.005
TEXT 16 -568 Left 2 ;Output Stage
TEXT -424 48 Left 2 ;Feedback Network
TEXT -440 -568 Left 2 ;Voltage Amplification Stage (VAS)
TEXT -1008 -576 Left 2 ;Input Stage
RECTANGLE Normal 832 -624 -16 480 2
RECTANGLE Normal -464 0 -16 480 2
RECTANGLE Normal -16 -624 -464 0 2
RECTANGLE Normal -1056 -624 -464 480 2
