Version 4
SHEET 1 1384 680
WIRE 704 -384 704 -528
WIRE 336 -352 160 -352
WIRE 336 -336 336 -352
WIRE 640 -336 336 -336
WIRE 336 -304 336 -336
WIRE 544 -304 336 -304
WIRE 336 -272 336 -304
WIRE 544 -240 544 -304
WIRE 480 -192 336 -192
WIRE 704 -192 704 -288
WIRE 816 -192 784 -192
WIRE 816 -160 816 -192
WIRE 336 -80 336 -112
WIRE 544 -80 544 -144
WIRE 544 -80 336 -80
WIRE 704 -80 704 -192
WIRE 336 -32 336 -80
WIRE 640 -32 336 -32
WIRE 336 0 336 -32
WIRE 144 48 96 48
WIRE 272 48 144 48
WIRE 704 64 704 16
WIRE 816 64 704 64
WIRE 336 128 336 96
WIRE 336 128 240 128
WIRE 144 160 144 48
WIRE 336 160 336 128
WIRE 240 208 240 128
WIRE 240 208 208 208
WIRE 272 208 240 208
WIRE 240 336 144 336
WIRE 336 336 240 336
WIRE 240 400 240 336
FLAG 96 128 0
FLAG 816 -160 0
FLAG 704 -528 Vcc+
FLAG 160 -352 Signal
FLAG 816 64 Vcc-
FLAG 240 400 Vcc-
FLAG 192 -560 0
FLAG 336 -560 0
FLAG 192 -640 Vcc-
FLAG 336 -640 Vcc+
FLAG 64 -480 0
FLAG 64 -560 Signal
SYMBOL npn 272 160 R0
SYMATTR InstName Q_W2
SYMBOL npn 208 160 M0
SYMATTR InstName Q_W1
SYMBOL res 128 240 R0
SYMATTR InstName R_WE1
SYMATTR Value 200
SYMBOL res 320 240 R0
SYMATTR InstName R_WE2
SYMATTR Value 200
SYMBOL npn 272 0 R0
SYMATTR InstName Q_W3
SYMBOL res 80 32 R0
WINDOW 0 -54 32 Left 2
WINDOW 3 -36 66 Left 2
SYMATTR InstName R_W
SYMATTR Value 3k
SYMBOL res 320 -208 R0
SYMATTR InstName R_VBE2
SYMATTR Value 1k
SYMBOL res 320 -288 R0
SYMATTR InstName R_VBE1
SYMATTR Value 4k
SYMBOL npn 480 -240 R0
SYMATTR InstName Q_VBE
SYMBOL res 800 -208 R90
WINDOW 0 -8 39 VBottom 2
WINDOW 3 32 56 VTop 2
SYMATTR InstName R_load
SYMATTR Value 8
SYMBOL voltage 192 -656 R0
WINDOW 123 0 0 Left 0
WINDOW 39 0 0 Left 0
SYMATTR InstName V1
SYMATTR Value -25
SYMBOL voltage 336 -656 R0
WINDOW 123 0 0 Left 0
WINDOW 39 0 0 Left 0
SYMATTR InstName V2
SYMATTR Value 25
SYMBOL voltage 64 -576 R0
WINDOW 123 0 0 Left 0
WINDOW 39 0 0 Left 0
SYMATTR InstName V3
SYMATTR Value SINE(0 10 1k)
SYMBOL npn 640 -384 R0
SYMATTR InstName NPN-Darlington-BDX33C
SYMBOL pnp 640 16 M180
SYMATTR InstName PNP-Darlington-BDX34C
