Version 4
SHEET 1 1384 792
WIRE -912 -496 -1232 -496
WIRE -656 -496 -912 -496
WIRE -272 -496 -656 -496
WIRE 704 -496 -272 -496
WIRE 880 -496 704 -496
WIRE -912 -464 -912 -496
WIRE -656 -464 -656 -496
WIRE -1488 -416 -1488 -432
WIRE -272 -400 -272 -496
WIRE -912 -368 -912 -384
WIRE -656 -368 -656 -384
WIRE 704 -368 704 -496
WIRE 336 -336 -112 -336
WIRE 400 -336 336 -336
WIRE 576 -336 480 -336
WIRE 656 -336 576 -336
WIRE -784 -320 -848 -320
WIRE -720 -320 -784 -320
WIRE 336 -304 336 -336
WIRE 544 -304 336 -304
WIRE 336 -288 336 -304
WIRE -272 -272 -272 -320
WIRE 704 -272 704 -304
WIRE -784 -256 -784 -320
WIRE -656 -256 -656 -272
WIRE -656 -256 -784 -256
WIRE 544 -240 544 -304
WIRE -912 -224 -912 -272
WIRE -416 -224 -912 -224
WIRE -336 -224 -416 -224
WIRE -912 -208 -912 -224
WIRE -656 -208 -656 -256
WIRE -416 -192 -416 -224
WIRE 336 -192 336 -208
WIRE 480 -192 336 -192
WIRE 336 -176 336 -192
WIRE 704 -176 704 -192
WIRE 816 -176 704 -176
WIRE 880 -176 816 -176
WIRE 992 -176 880 -176
WIRE -1184 -160 -1280 -160
WIRE -1104 -160 -1120 -160
WIRE -976 -160 -1104 -160
WIRE -960 -160 -976 -160
WIRE -512 -160 -592 -160
WIRE 704 -160 704 -176
WIRE -1104 -144 -1104 -160
WIRE 880 -144 880 -176
WIRE -912 -96 -912 -112
WIRE -656 -96 -656 -112
WIRE -416 -80 -416 -112
WIRE -368 -80 -416 -80
WIRE -272 -80 -272 -176
WIRE -272 -80 -304 -80
WIRE -112 -80 -112 -336
WIRE -112 -80 -272 -80
WIRE 336 -80 336 -96
WIRE 544 -80 544 -144
WIRE 544 -80 336 -80
WIRE 704 -64 704 -80
WIRE -1104 -48 -1104 -64
WIRE 336 -32 336 -80
WIRE 400 -32 336 -32
WIRE 576 -32 480 -32
WIRE 656 -32 576 -32
WIRE 880 -32 880 -64
WIRE -912 0 -912 -16
WIRE -784 0 -912 0
WIRE -656 0 -656 -16
WIRE -656 0 -784 0
WIRE 336 0 336 -32
WIRE -944 48 -1040 48
WIRE 144 48 96 48
WIRE 272 48 144 48
WIRE -1040 64 -1040 48
WIRE -944 112 -944 48
WIRE -848 112 -944 112
WIRE -784 112 -784 0
WIRE -720 112 -784 112
WIRE 336 128 336 96
WIRE 336 128 240 128
WIRE 704 128 704 0
WIRE -944 160 -944 112
WIRE -720 160 -720 112
WIRE -512 160 -512 -160
WIRE -304 160 -512 160
WIRE -272 160 -304 160
WIRE -96 160 -192 160
WIRE 144 160 144 48
WIRE 336 160 336 128
WIRE -1040 176 -1040 144
WIRE -1472 192 -1472 160
WIRE -304 192 -304 160
WIRE -848 208 -848 112
WIRE -848 208 -880 208
WIRE -784 208 -848 208
WIRE 240 208 240 128
WIRE 240 208 208 208
WIRE 272 208 240 208
WIRE -1472 288 -1472 272
WIRE -1472 288 -1568 288
WIRE -1472 304 -1472 288
WIRE -944 304 -944 256
WIRE -720 304 -720 256
WIRE -1568 336 -1568 288
WIRE 240 336 144 336
WIRE 336 336 240 336
WIRE -304 368 -304 336
WIRE -96 368 -96 160
WIRE 816 368 816 -176
WIRE 816 368 -96 368
WIRE -1472 416 -1472 384
WIRE -944 432 -944 384
WIRE -944 432 -1232 432
WIRE -720 432 -720 384
WIRE -720 432 -944 432
WIRE 240 432 240 336
WIRE 240 432 -720 432
WIRE 880 432 240 432
FLAG 96 128 0
FLAG 880 -496 Vcc+
FLAG 704 128 Vcc-
FLAG -1472 416 Vcc-
FLAG -1472 160 Vcc+
FLAG 880 -32 0
FLAG 992 -176 out
FLAG -304 368 0
FLAG -1488 -336 0
FLAG -1488 -432 in
FLAG -1232 432 Vcc-
FLAG 880 432 Vcc-
FLAG -1040 176 0
FLAG 576 -336 ops_npn
FLAG 576 -32 ops_pnp
FLAG -1104 -48 0
FLAG 336 -192 VBE_base
FLAG -1568 336 0
FLAG -1280 -160 in
FLAG -1232 -496 Vcc+
SYMBOL npn 272 160 R0
SYMATTR InstName Q_W2
SYMATTR Value BC547B
SYMBOL npn 208 160 M0
SYMATTR InstName Q_W1
SYMATTR Value BC547B
SYMBOL res 128 240 R0
SYMATTR InstName R_WE1
SYMATTR Value 200
SYMBOL res 320 240 R0
SYMATTR InstName R_WE2
SYMATTR Value 200
SYMBOL npn 272 0 R0
SYMATTR InstName Q_W3
SYMATTR Value BC547B
SYMBOL res 80 32 R0
WINDOW 0 -54 32 Left 2
WINDOW 3 -36 66 Left 2
SYMATTR InstName R_W
SYMATTR Value 3k
SYMBOL res 320 -192 R0
SYMATTR InstName R_VBE2
SYMATTR Value 1k
SYMBOL res 320 -304 R0
SYMATTR InstName R_VBE1
SYMATTR Value 3.5k
SYMBOL npn 480 -240 R0
SYMATTR InstName Q_VBE
SYMATTR Value BC547B
SYMBOL res 864 -160 R0
SYMATTR InstName R_load
SYMATTR Value 8
SYMBOL res 688 -288 R0
SYMATTR InstName R1
SYMATTR Value 0.4
SYMBOL res 688 -176 R0
SYMATTR InstName R2
SYMATTR Value 0.4
SYMBOL npn -976 -208 R0
SYMATTR InstName Q1
SYMATTR Value BC547B
SYMBOL npn -592 -208 M0
SYMATTR InstName Q2
SYMATTR Value BC547B
SYMBOL pnp -848 -272 R180
SYMATTR InstName Q3
SYMATTR Value BC557B
SYMBOL pnp -720 -272 M180
SYMATTR InstName Q4
SYMATTR Value BC557B
SYMBOL pnp -336 -176 M180
SYMATTR InstName Q5
SYMATTR Value BC557B
SYMBOL res -176 144 R90
WINDOW 0 0 56 VBottom 2
WINDOW 3 32 56 VTop 2
SYMATTR InstName R3
SYMATTR Value 2k
SYMBOL res -320 176 R0
SYMATTR InstName R4
SYMATTR Value 165
SYMBOL cap -320 272 R0
SYMATTR InstName C1
SYMATTR Value 100µ
SYMBOL res -432 -208 R0
SYMATTR InstName R5
SYMATTR Value 150
SYMBOL cap -304 -96 R90
WINDOW 0 0 32 VBottom 2
WINDOW 3 32 32 VTop 2
SYMATTR InstName C2
SYMATTR Value 220p
SYMBOL res -288 -416 R0
SYMATTR InstName R6
SYMATTR Value 50
SYMBOL voltage -1488 -432 R0
WINDOW 123 36 101 Left 2
WINDOW 39 0 0 Left 0
WINDOW 3 36 71 Left 2
SYMATTR Value2 AC 1
SYMATTR Value SINE(0 1.18 1k)
SYMATTR InstName V4
SYMBOL npn -784 160 R0
SYMATTR InstName Q6
SYMATTR Value BC547B
SYMBOL npn -880 160 M0
SYMATTR InstName Q7
SYMATTR Value BC547B
SYMBOL res -1056 48 R0
SYMATTR InstName R7
SYMATTR Value 2.43k
SYMBOL res -960 288 R0
SYMATTR InstName R8
SYMATTR Value 5k
SYMBOL res -736 288 R0
SYMATTR InstName R9
SYMATTR Value 5k
SYMBOL cap -1120 -176 R90
WINDOW 0 0 32 VBottom 2
WINDOW 3 32 32 VTop 2
SYMATTR InstName C3
SYMATTR Value 100µ
SYMBOL res -1120 -160 R0
SYMATTR InstName R10
SYMATTR Value 10k
SYMBOL voltage -1472 176 R0
WINDOW 0 36 30 Left 2
WINDOW 3 32 81 Left 2
WINDOW 123 0 0 Left 0
WINDOW 39 0 0 Left 0
SYMATTR InstName V1
SYMATTR Value 30
SYMBOL voltage -1472 288 R0
WINDOW 0 34 35 Left 2
WINDOW 3 36 77 Left 2
WINDOW 123 0 0 Left 0
WINDOW 39 0 0 Left 0
SYMATTR InstName V2
SYMATTR Value 30
SYMBOL mj11016 704 -336 R0
SYMATTR InstName U1
SYMBOL mj11015 704 -32 R0
SYMATTR InstName U2
SYMBOL res -928 -480 R0
SYMATTR InstName R12
SYMATTR Value 100
SYMBOL res -672 -480 R0
SYMATTR InstName R13
SYMATTR Value 100
SYMBOL res 496 -48 R90
WINDOW 0 0 56 VBottom 2
WINDOW 3 32 56 VTop 2
SYMATTR InstName R11
SYMATTR Value 100
SYMBOL res 496 -352 R90
WINDOW 0 0 56 VBottom 2
WINDOW 3 32 56 VTop 2
SYMATTR InstName R14
SYMATTR Value 100
SYMBOL res -928 -112 R0
SYMATTR InstName R15
SYMATTR Value 12.7
SYMBOL res -672 -112 R0
SYMATTR InstName R16
SYMATTR Value 13
TEXT -1560 -16 Left 2 !;ac dec 0.005 1 100k
TEXT 16 -568 Left 2 ;VBE-Multiplier
TEXT -424 48 Left 2 ;Feedback Network
TEXT -440 -568 Left 2 ;Voltage Amplification Stage (VAS)
TEXT -1008 -576 Left 2 ;Input Stage
TEXT 656 -568 Left 2 ;Output Stage
TEXT -1560 -48 Left 2 !.tran 16m
TEXT -1560 16 Left 2 !.option plotwinsize=0
TEXT -1560 48 Left 2 !.four 1k 10 8 V(out)
TEXT -1640 504 Left 2 !.MEAS TRAN power_Output AVG I(R_load)*V(Out) TRIG time=0 TARG time=16m
RECTANGLE Normal -464 0 -16 480 2
RECTANGLE Normal -16 -624 -464 0 2
RECTANGLE Normal 640 480 -16 -624 2
RECTANGLE Normal 848 480 640 -624 2
RECTANGLE Normal -464 480 -1200 -624 2
