Version 4
SHEET 1 1044 680
WIRE 768 0 688 0
WIRE 992 0 848 0
WIRE 336 16 224 16
WIRE 560 16 400 16
WIRE 960 48 800 48
WIRE 512 64 352 64
WIRE 800 96 800 48
WIRE 848 96 800 96
WIRE 352 112 352 64
WIRE 400 112 352 112
WIRE 960 112 960 48
WIRE 960 112 912 112
WIRE 992 112 992 0
WIRE 992 112 960 112
WIRE 1040 112 992 112
WIRE 512 128 512 64
WIRE 512 128 464 128
WIRE 560 128 560 16
WIRE 560 128 512 128
WIRE 608 128 560 128
WIRE 688 128 688 0
WIRE 688 128 672 128
WIRE 704 128 688 128
WIRE 800 128 768 128
WIRE 848 128 800 128
WIRE 400 144 352 144
WIRE 800 160 800 128
WIRE 112 176 80 176
WIRE 224 176 224 16
WIRE 224 176 192 176
WIRE 256 176 224 176
WIRE 352 176 352 144
WIRE 352 176 336 176
WIRE 80 208 80 176
WIRE 352 224 352 176
WIRE 800 256 800 240
WIRE 352 320 352 288
WIRE -64 352 -64 304
WIRE 48 432 -64 432
WIRE 48 448 48 432
WIRE -64 560 -64 512
FLAG 352 320 0
FLAG 48 448 0
FLAG -64 560 v-
FLAG -64 304 v+
FLAG 432 96 v+
FLAG 432 160 v-
FLAG 80 288 0
FLAG 880 144 v-
FLAG 880 80 v+
FLAG 800 256 0
SYMBOL res 208 160 R90
WINDOW 0 0 56 VBottom 2
WINDOW 3 32 56 VTop 2
SYMATTR InstName R1
SYMATTR Value 3.92k
SYMBOL res 352 160 R90
WINDOW 0 0 56 VBottom 2
WINDOW 3 32 56 VTop 2
SYMATTR InstName R2
SYMATTR Value 7.32k
SYMBOL cap 336 224 R0
SYMATTR InstName C1
SYMATTR Value 1n
SYMBOL cap 400 0 R90
WINDOW 0 0 32 VBottom 2
WINDOW 3 32 32 VTop 2
SYMATTR InstName C2
SYMATTR Value 2.2n
SYMBOL OpAmps\\UniversalOpAmp 432 128 R0
SYMATTR InstName U1
SYMBOL voltage -64 336 R0
WINDOW 123 0 0 Left 0
WINDOW 39 0 0 Left 0
SYMATTR InstName V1
SYMATTR Value 5
SYMBOL voltage -64 416 R0
WINDOW 123 0 0 Left 0
WINDOW 39 0 0 Left 0
SYMATTR InstName V2
SYMATTR Value 5
SYMBOL voltage 80 192 R0
WINDOW 123 24 124 Left 2
WINDOW 39 0 0 Left 0
SYMATTR InstName V3
SYMATTR Value ""
SYMATTR Value2 AC 1
SYMBOL OpAmps\\UniversalOpAmp 880 112 R0
SYMATTR InstName U2
SYMBOL cap 672 112 R90
WINDOW 0 0 32 VBottom 2
WINDOW 3 32 32 VTop 2
SYMATTR InstName C3
SYMATTR Value 1.8µ
SYMBOL cap 768 112 R90
WINDOW 0 0 32 VBottom 2
WINDOW 3 32 32 VTop 2
SYMATTR InstName C4
SYMATTR Value 1.2µ
SYMBOL res 864 -16 R90
WINDOW 0 0 56 VBottom 2
WINDOW 3 32 56 VTop 2
SYMATTR InstName R3
SYMATTR Value 3.92k
SYMBOL res 816 256 R180
WINDOW 0 36 76 Left 2
WINDOW 3 36 40 Left 2
SYMATTR InstName R4
SYMATTR Value 7.87k
TEXT -96 632 Left 2 !.ac dec 10 5 100k
